29

C         -1.20927        1.30486       -0.97506
C          0.01622        1.96500       -0.79254
C          1.08884        1.32058       -0.17092
C          0.96128       -0.00107        0.28218
C         -0.26229       -0.66811        0.09940
C         -1.33608       -0.02364       -0.52260
C          2.13618       -0.66941        0.95096
N         -2.28338        1.99821       -1.61327
C         -3.60363        1.42362       -1.82458
N         -4.45950        2.37272       -2.55682
C         -5.76959        1.78798       -2.87102
C         -6.64616        2.81417       -3.57989
O         -4.18610        1.09996       -0.58674
F          2.49652        0.05086        2.07538
F          3.20625       -0.70396        0.07543
F          1.83959       -1.96584        1.33522
H          0.14186        2.98567       -1.13199
H          2.02245        1.85456       -0.04186
H         -0.39502       -1.68843        0.43532
H         -2.25791       -0.57432       -0.64493
H         -2.11248        2.96114       -1.94334
H         -3.49079        0.49467       -2.42793
H         -3.98570        2.61667       -3.45910
H         -6.28839        1.48065       -1.93717
H         -5.64818        0.89723       -3.52744
H         -6.79311        3.70270       -2.92995
H         -7.63710        2.36733       -3.80628
H         -6.17286        3.13386       -4.53252
H         -4.26370        1.94669       -0.07373
